<flow id="queryUserByIdWithFlow" name="queryUserByIdWithFlow" begin-node-id="queryUserById"
	private-context="false" enable="false">
	<nodes>
	<node id="queryUserById" name="queryUserById"  title="查询用户">
			<component name="tinydbQueryServiceWithId">
				<properties>
					<flow-property name="beanType" value="user" />
					<flow-property name="primaryKey" value="${primaryKey}" />
					<flow-property name="resultKey" value="user" />
				</properties>
			</component>
	</node>
	</nodes>
</flow>
