<flow id="subtraction" name="subtraction" 
	private-context="false" enable="false">
	<nodes>
	<node id="subtraction" name="subtraction"  title="减法服务">
			<component name="subtractionComponent">
				<properties>
					<flow-property name="number1" value="${number1}" />
					<flow-property name="number2" value="${number2}" />
					<flow-property name="resultKey" value="result" />
				</properties>
			</component>
			<next-nodes>
			    <next-node next-node-id="end"></next-node>
			</next-nodes>
		</node>
	</nodes>
</flow>
