<flow id="addOfferWithFlow" name="addOfferWithFlow" begin-node-id="addOffer"
	private-context="false" enable="false">
	<nodes>
	<node id="addOffer" name="addOffer"  title="添加捐助">
			<component name="tinydbAddService">
				<properties>
					<flow-property name="beanType" value="offer" />
					<flow-property name="resultKey" value="result" />
				</properties>
			</component>
	</node>
	</nodes>
</flow>
