<flow id="queryOfferByIdWithFlow" name="queryOfferByIdWithFlow" begin-node-id="queryOfferById"
	private-context="false" enable="false">
	<nodes>
	<node id="queryOfferById" name="queryOfferById"  title="主键查询捐助">
			<component name="tinydbQueryServiceWithId">
				<properties>
					<flow-property name="beanType" value="offer" />
					<flow-property name="primaryKey" value="${primaryKey}" />
					<flow-property name="resultKey" value="offer" />
				</properties>
			</component>
	</node>
	</nodes>
</flow>
